FoamFile
{
	version	2.0;
	format	ascii;
	class	dictionary;
	location	"system";
	object	createPatchDict;
}
pointSync	false;
patches	
(
	{
		name    ChamberTest;
		patchInfo
		{
			type    patch;
		}
		constructFrom patches;
		patches  (ChamberTest_OpenSCAD_Model);
	}
	{
		name    Injector;
		patchInfo
		{
			type    patch;
		}
		constructFrom patches;
		patches  (Injector_cylinder Injector_disk1 Injector_disk2);
	}
);
