FoamFile
{
	version	2.0;
	format	ascii;
	class	dictionary;
	location	"system";
	object	fvSchemes;
}
ddtSchemes
{
	default	none;
}
gradSchemes
{
	default	Gauss linear;
}
divSchemes
{
	default	none;
}
laplacianSchemes
{
	default	Gauss linear corrected;
}
interpolationSchemes
{
	default	linear;
}
snGradSchemes
{
	default	none;
}
fluxRequired
{
	default	no;
}
