FoamFile
{
	version	2.0;
	format	ascii;
	class	dictionary;
	location	"system";
	object	fvSolution;
}
solvers
{
	cellDisplacement
	{
		solver	GAMG;
		smoother	GaussSeidel;
		nPreSweeps	0;
		nPostSweeps	1;
		nFinestSweeps	1;
		nCellsInCoarsestLevel	20;
		mergeLevels	1;
		agglomerator	faceAreaPair;
		cacheAgglomeration	true;
		tolerance	1.0E-8;
		relTol	0.0;
		maxIter	200;
	}
}
