FoamFile
{
	version	2.0;
	class	dictionary;
	format	ascii;
	location	"system";
	object	surfaceFeatureExtractDict;
}
ChamberTest.stl
{
	extractionMethod	extractFromSurface;
	extractFromSurfaceCoeffs
	{
		includedAngle	120.0;
	}
}
